data_image0
_chemical_formula_structural       Pt64CH3
_chemical_formula_sum              "Pt64 C1 H3"
_cell_length_a       11.0874
_cell_length_b       11.0874
_cell_length_c       22.7896
_cell_angle_alpha    90
_cell_angle_beta     90
_cell_angle_gamma    60

_space_group_name_H-M_alt    "P 1"
_space_group_IT_number       1

loop_
  _space_group_symop_operation_xyz
  'x, y, z'

loop_
  _atom_site_type_symbol
  _atom_site_label
  _atom_site_symmetry_multiplicity
  _atom_site_fract_x
  _atom_site_fract_y
  _atom_site_fract_z
  _atom_site_occupancy
  Pt  Pt1       1.0  0.00000  0.00000  0.35104  1.0000
  Pt  Pt2       1.0  0.25000  0.00000  0.35104  1.0000
  Pt  Pt3       1.0  0.50000  0.00000  0.35104  1.0000
  Pt  Pt4       1.0  0.75000  0.00000  0.35104  1.0000
  Pt  Pt5       1.0  0.00000  0.25000  0.35104  1.0000
  Pt  Pt6       1.0  0.25000  0.25000  0.35104  1.0000
  Pt  Pt7       1.0  0.50000  0.25000  0.35104  1.0000
  Pt  Pt8       1.0  0.75000  0.25000  0.35104  1.0000
  Pt  Pt9       1.0  0.00000  0.50000  0.35104  1.0000
  Pt  Pt10      1.0  0.25000  0.50000  0.35104  1.0000
  Pt  Pt11      1.0  0.50000  0.50000  0.35104  1.0000
  Pt  Pt12      1.0  0.75000  0.50000  0.35104  1.0000
  Pt  Pt13      1.0  0.00000  0.75000  0.35104  1.0000
  Pt  Pt14      1.0  0.25000  0.75000  0.35104  1.0000
  Pt  Pt15      1.0  0.50000  0.75000  0.35104  1.0000
  Pt  Pt16      1.0  0.75000  0.75000  0.35104  1.0000
  Pt  Pt17      1.0  0.08333  0.08333  0.45035  1.0000
  Pt  Pt18      1.0  0.33333  0.08333  0.45035  1.0000
  Pt  Pt19      1.0  0.58333  0.08333  0.45035  1.0000
  Pt  Pt20      1.0  0.83333  0.08333  0.45035  1.0000
  Pt  Pt21      1.0  0.08333  0.33333  0.45035  1.0000
  Pt  Pt22      1.0  0.33333  0.33333  0.45035  1.0000
  Pt  Pt23      1.0  0.58333  0.33333  0.45035  1.0000
  Pt  Pt24      1.0  0.83333  0.33333  0.45035  1.0000
  Pt  Pt25      1.0  0.08333  0.58333  0.45035  1.0000
  Pt  Pt26      1.0  0.33333  0.58333  0.45035  1.0000
  Pt  Pt27      1.0  0.58333  0.58333  0.45035  1.0000
  Pt  Pt28      1.0  0.83333  0.58333  0.45035  1.0000
  Pt  Pt29      1.0  0.08333  0.83333  0.45035  1.0000
  Pt  Pt30      1.0  0.33333  0.83333  0.45035  1.0000
  Pt  Pt31      1.0  0.58333  0.83333  0.45035  1.0000
  Pt  Pt32      1.0  0.83333  0.83333  0.45035  1.0000
  Pt  Pt33      1.0  0.91622  0.16713  0.54991  1.0000
  Pt  Pt34      1.0  0.16667  0.16666  0.55006  1.0000
  Pt  Pt35      1.0  0.41665  0.16713  0.54991  1.0000
  Pt  Pt36      1.0  0.66655  0.16690  0.55012  1.0000
  Pt  Pt37      1.0  0.91622  0.41664  0.54991  1.0000
  Pt  Pt38      1.0  0.16714  0.41664  0.54991  1.0000
  Pt  Pt39      1.0  0.41757  0.41756  0.55158  1.0000
  Pt  Pt40      1.0  0.66486  0.41757  0.55158  1.0000
  Pt  Pt41      1.0  0.91674  0.66651  0.55005  1.0000
  Pt  Pt42      1.0  0.16690  0.66654  0.55012  1.0000
  Pt  Pt43      1.0  0.41757  0.66486  0.55158  1.0000
  Pt  Pt44      1.0  0.66655  0.66655  0.55013  1.0000
  Pt  Pt45      1.0  0.91675  0.91674  0.55004  1.0000
  Pt  Pt46      1.0  0.16714  0.91622  0.54991  1.0000
  Pt  Pt47      1.0  0.41665  0.91622  0.54991  1.0000
  Pt  Pt48      1.0  0.66651  0.91674  0.55005  1.0000
  Pt  Pt49      1.0  0.99998  0.99998  0.65224  1.0000
  Pt  Pt50      1.0  0.24993  0.00014  0.65243  1.0000
  Pt  Pt51      1.0  0.50005  0.99998  0.65225  1.0000
  Pt  Pt52      1.0  0.74994  0.00011  0.65229  1.0000
  Pt  Pt53      1.0  0.00014  0.24993  0.65243  1.0000
  Pt  Pt54      1.0  0.24993  0.24992  0.65243  1.0000
  Pt  Pt55      1.0  0.49966  0.24984  0.65225  1.0000
  Pt  Pt56      1.0  0.75051  0.24984  0.65225  1.0000
  Pt  Pt57      1.0  0.99998  0.50005  0.65225  1.0000
  Pt  Pt58      1.0  0.24984  0.49965  0.65225  1.0000
  Pt  Pt59      1.0  0.50000  0.50000  0.66145  1.0000
  Pt  Pt60      1.0  0.75051  0.49965  0.65226  1.0000
  Pt  Pt61      1.0  0.00011  0.74995  0.65229  1.0000
  Pt  Pt62      1.0  0.24984  0.75051  0.65225  1.0000
  Pt  Pt63      1.0  0.49965  0.75051  0.65226  1.0000
  Pt  Pt64      1.0  0.74994  0.74994  0.65229  1.0000
  C   C1        1.0  0.50000  0.50000  0.75233  1.0000
  H   H1        1.0  0.44551  0.60896  0.76698  1.0000
  H   H2        1.0  0.60896  0.44551  0.76698  1.0000
  H   H3        1.0  0.44550  0.44551  0.76698  1.0000
